28

C      -0.02600393      -1.21185000      -2.74774107
C      -0.02786393       1.21228000      -4.14618107
C      -0.02507393       0.00000000      -2.04589107
C      -0.02786393      -1.21228000      -4.14618107
C      -0.02880393       0.00000000      -4.85528107
C      -0.02600393       1.21185000      -2.74774107
H      -0.02529393       2.15500000      -2.21448107
N      -0.03070393       0.00000000      -6.28958107
H      -0.02856393       2.15618000      -4.67681107
H      -0.02856393      -2.15618000      -4.67681107
H      -0.02529393      -2.15500000      -2.21448107
C      -0.02316393       0.00000000      -0.60698107
C      -0.02156393       0.00000000       0.59896893
H      -0.01948393      -2.18674000       2.16565893
C      -0.01975393       0.00000000       1.96000893
C      -0.01878393       1.23769000       2.68866893
C      -0.01693393       1.21822000       4.08525893
C      -0.01600393       0.00000000       4.78377893
C      -0.01693393      -1.21822000       4.08525893
C      -0.01878393      -1.23769000       2.68866893
H      -0.01948393       2.18674000       2.16565893
H      -0.01622393       2.16001000       4.62142893
B      -0.01393393       0.00000000       6.34555893
H      -0.01622393      -2.16001000       4.62142893
H       0.28178607      -0.94818000      -6.66571107
H       0.28178607       0.94818000      -6.66571107
H      -0.01313393      -1.01893000       6.94461893
H      -0.01313393       1.01893000       6.94461893
