88

C      -0.02600393      -1.21185000      -2.74774107
C      -0.02786393       1.21228000      -4.14618107
C      -0.02507393       0.00000000      -2.04589107
C      -0.02786393      -1.21228000      -4.14618107
C      -0.02880393       0.00000000      -4.85528107
C      -0.02600393       1.21185000      -2.74774107
H      -0.02529393       2.15500000      -2.21448107
N      -0.03070393       0.00000000      -6.28958107
H      -0.02856393       2.15618000      -4.67681107
H      -0.02856393      -2.15618000      -4.67681107
H      -0.02529393      -2.15500000      -2.21448107
C      -0.02316393       0.00000000      -0.60698107
C      -0.02156393       0.00000000       0.59896893
H      -0.01948393      -2.18674000       2.16565893
C      -0.01975393       0.00000000       1.96000893
C      -0.01878393       1.23769000       2.68866893
C      -0.01693393       1.21822000       4.08525893
C      -0.01600393       0.00000000       4.78377893
C      -0.01693393      -1.21822000       4.08525893
C      -0.01878393      -1.23769000       2.68866893
H      -0.01948393       2.18674000       2.16565893
H      -0.01622393       2.16001000       4.62142893
B      -0.01393393       0.00000000       6.34555893
H      -0.01622393      -2.16001000       4.62142893
H       2.49109919      -0.83027759      -6.73956488
H       1.07485053       2.02588992      -4.90218905
C       2.12674995      -1.56851170       7.25641728
C       2.12125147       1.48572270       7.39723889
C      -0.01281716       1.42238057       7.18181981
C      -1.22204419       2.07084756       7.46206731
C      -1.22109628       3.27810938       8.17185332
C      -0.01092133       3.83690408       8.60139178
C       1.19830564       3.18843706       8.32114427
C       1.19735773       1.98117529       7.61135828
C      -2.14666213       1.64390787       7.13388417
H      -2.14498999       3.77356201       8.38597270
C      -0.01019704       4.75929633       9.14369430
H       2.12292358       3.61537673       8.64932741
C      -0.01281716      -1.42238057       7.18181982
C      -1.22516118      -2.02391600       7.54189650
C      -1.22421327      -3.23117781       8.25168252
C      -0.01092133      -3.83690408       8.60139177
C       1.20142263      -3.23536863       8.24131508
C       1.20047472      -2.02810686       7.53152909
C      -2.15216061      -1.56111888       7.27470576
H      -2.15048847      -3.69077298       8.52679436
C      -0.01019704      -4.75929633       9.14369429
H       2.12842207      -3.69816574       8.50850579
H      -0.02013104       0.00000000       1.67896798
H      -0.02119164       0.00000000       0.88000989
H       2.87692693      -1.80761410       7.99564968
H       1.99404959      -0.49763669       7.21150251
H       2.43839395      -1.93685626       6.29018734
H       2.87401136       2.22241711       7.15842120
H       1.98438064       0.82455919       6.55430996
H       2.43209422       0.91508727       8.25988134
H      -2.01105588       1.20917606       6.15458891
H      -2.89864020       2.41745697       7.08337915
H      -2.45774853       0.87971217       7.83075588
H       0.87186048       4.80699817       9.76506301
H      -0.89177174       4.80802729       9.76566806
H      -0.00995336       5.58570013       8.44838380
H      -2.02073534      -0.48951320       7.24662237
H      -2.90154527      -1.81274704       8.01057661
H      -2.46404827      -1.91452074       6.30298913
H       0.87186048      -5.32545349       8.88323200
H      -0.89177173      -5.32648262       8.88383706
H      -0.00995335      -4.55356769      10.20391864
C       0.39987231       1.30648592      -6.80784611
C       0.24977795       1.60425398      -8.16802403
C       0.65998427       2.84893194      -8.66177065
C       1.22028491       3.79584172      -7.79533930
C       1.37037925       3.49807361      -6.43516143
C       0.96017295       2.25339569      -5.94141482
H      -0.17831229       0.88078018      -8.83000923
H       0.54530673       3.07643773      -9.70099641
H       1.53369757       4.74682129      -8.17257977
H       1.79846947       4.22154740      -5.77317621
C       0.39987231      -1.30648592      -6.80784611
C      -0.55306744      -2.28202469      -7.12644937
C      -0.14286110      -3.52670263      -7.62019603
C       1.22028497      -3.79584166      -7.79533938
C       2.17322465      -2.82030289      -7.47673611
C       1.76301833      -1.57562499      -6.98298947
H      -1.59456094      -2.07639251      -6.99263342
H      -0.87094192      -4.27205006      -7.86362061
H       1.53369769      -4.74682119      -8.17257992
H       3.21471815      -3.02593504      -7.61055207
