26
Coordinates from ORCA-job orca_nh2-biphenyl-bh2
  C   -0.33520495995928     -1.15870962025725     -1.51786864728581
  C   0.23515026641084      1.18502051557012     -2.89014452433761
  C   -0.09681883001401      0.00880414530622     -0.76414338195571
  C   -0.28904482708997     -1.16610254677513     -2.90769459662087
  C   0.00240129617217      0.00846103969728     -3.62607307076409
  C   0.18222190291825      1.17883457954022     -1.50036756462021
  H   0.44398317461928      2.10258408576404     -0.98145928809478
  N   0.02997158639919      0.01287254834992     -5.00746809280591
  H   0.48833896075218      2.10825056513273     -3.41834518201598
  H   -0.48413381375602     -2.09478530845618     -3.45138272266619
  H   -0.59456654904002     -2.09209781235338     -1.01622311041589
  H   0.43915817331137     -2.10049016027246      0.91469001025565
  C   -0.09467023507053     -0.00142007856514      0.70768041182979
  C   -0.33049609572541      1.17500539728341      1.45732243488605
  C   -0.27485277342041      1.17288626537342      2.84529468531997
  C   0.00579052852059      0.00068454444571      3.58165799727998
  C   0.22764493822048     -1.17392698806110      2.82925469875043
  C   0.18363700366571     -1.17895239967339      1.44082254443447
  H   -0.59616122355892      2.10249754817843      0.94665898685128
  H   -0.46530850114564      2.10087056614406      3.38881976501280
  B   0.07085776981632      0.00407517312001      5.11476841989663
  H   0.46961538091785     -2.09793990460254      3.35882976923018
  H   0.14033825143839     -0.87873899121004     -5.47020287915454
  H   0.51560554456793      0.77614918419885     -5.45738683605010
  H   0.30385963947763     -1.01524420498617      5.70841397289769
  H   -0.13260660842799      1.02141185710833      5.72255620014276
