26

C       0.02948000       2.23132000       9.69261000
C       0.03382000      -0.19274000      11.09118000
C       0.02670000       1.01904000       8.99041000
C       0.03382000       2.23082000      11.09118000
C       0.03120000       1.01904000      11.79446000
C       0.02948000      -0.19324000       9.69261000
H       0.02974000      -1.13660000       9.15976000
P       0.04814000       1.01904000      13.63261000
H       0.03951000      -1.13460000      11.62501000
H       0.03951000       3.17268000      11.62501000
H       0.02974000       3.17468000       9.15976000
H       0.00690042       2.03808000       2.46580603
H       0.00690042       0.00000000       2.46580603
H       0.02175042       3.20580000       7.24477603
C       0.02239042       1.01904000       7.45041603
C       0.02047042      -0.21867000       6.72174603
C       0.01693042      -0.19920000       5.32515603
C       0.01482042       1.01904000       4.62662603
C       0.01693042       2.23728000       5.32515603
C       0.02047042       2.25675000       6.72174603
H       0.02175042      -1.16772000       7.24477603
H       0.01537042      -1.14098000       4.78897603
B       0.00840042       1.01904000       3.06483603
H       0.01537042       3.17906000       4.78897603
H      -0.96427000       2.05539000      13.74816000
H      -0.96427000      -0.01731000      13.74816000